data_MoO3_opt_K_2X_E5
_audit_creation_date              2007-10-11
_audit_creation_method            'Materials Studio'
_symmetry_space_group_name_H-M    'P1'
_symmetry_Int_Tables_number       1
_symmetry_cell_setting            triclinic
loop_
_symmetry_equiv_pos_as_xyz
  x,y,z
_cell_length_a                    5.4127
_cell_length_b                   69.2500
_cell_length_c                    5.4127
_cell_angle_alpha                 90.0000
_cell_angle_beta                  85.9573
_cell_angle_gamma                 90.0000
loop_
_atom_site_label
_atom_site_type_symbol
_atom_site_fract_x
_atom_site_fract_y
_atom_site_fract_z
_atom_site_Uiso_or_equiv
_atom_site_adp_type
_atom_site_occupancy
A1     K     0.13129   0.20124   0.88603   0.00000  Uiso   1.00
A2     K     0.12821   0.59995   0.38912   0.00000  Uiso   1.00
A3     Mo    0.63302   0.23033   0.88788   0.00000  Uiso   1.00
A4     Mo    0.13307   0.23033   0.38782   0.00000  Uiso   1.00
A5     Mo    0.36392   0.27388   0.11917   0.00000  Uiso   1.00
A6     Mo    0.86389   0.27388   0.61913   0.00000  Uiso   1.00
A7     Mo    0.84612   0.33037   0.10290   0.00000  Uiso   1.00
A8     Mo    0.34612   0.33037   0.60290   0.00000  Uiso   1.00
A9     Mo    0.15931   0.37289   0.91663   0.00000  Uiso   1.00
A10    Mo    0.65931   0.37289   0.41663   0.00000  Uiso   1.00
A11    Mo    0.65874   0.42830   0.91720   0.00000  Uiso   1.00
A12    Mo    0.15874   0.42830   0.41720   0.00000  Uiso   1.00
A13    Mo    0.34515   0.47082   0.10388   0.00000  Uiso   1.00
A14    Mo    0.84514   0.47082   0.60388   0.00000  Uiso   1.00
A15    Mo    0.86138   0.52731   0.12164   0.00000  Uiso   1.00
A16    Mo    0.36141   0.52731   0.62168   0.00000  Uiso   1.00
A17    Mo    0.13005   0.57086   0.89083   0.00000  Uiso   1.00
A18    Mo    0.63000   0.57086   0.39089   0.00000  Uiso   1.00
A19    O     0.63110   0.20504   0.88591   0.00000  Uiso   1.00
A20    O     0.13109   0.20504   0.38592   0.00000  Uiso   1.00
A21    O     0.38095   0.23102   0.63635   0.00000  Uiso   1.00
A22    O     0.88160   0.23102   0.13570   0.00000  Uiso   1.00
A23    O     0.38122   0.23728   0.13608   0.00000  Uiso   1.00
A24    O     0.88163   0.23728   0.63650   0.00000  Uiso   1.00
A25    O     0.63011   0.26376   0.88532   0.00000  Uiso   1.00
A26    O     0.13011   0.26376   0.38531   0.00000  Uiso   1.00
A27    O     0.13093   0.27100   0.88624   0.00000  Uiso   1.00
A28    O     0.63093   0.27100   0.38624   0.00000  Uiso   1.00
A29    O     0.37525   0.29822   0.13121   0.00000  Uiso   1.00
A30    O     0.87526   0.29822   0.63122   0.00000  Uiso   1.00
A31    O     0.87194   0.30612   0.12829   0.00000  Uiso   1.00
A32    O     0.37194   0.30612   0.62829   0.00000  Uiso   1.00
A33    O     0.62400   0.33336   0.88102   0.00000  Uiso   1.00
A34    O     0.12400   0.33336   0.38102   0.00000  Uiso   1.00
A35    O     0.13193   0.33848   0.88883   0.00000  Uiso   1.00
A36    O     0.63193   0.33848   0.38883   0.00000  Uiso   1.00
A37    O     0.87295   0.36481   0.13013   0.00000  Uiso   1.00
A38    O     0.37295   0.36481   0.63013   0.00000  Uiso   1.00
A39    O     0.38117   0.36983   0.13828   0.00000  Uiso   1.00
A40    O     0.88117   0.36983   0.63828   0.00000  Uiso   1.00
A41    O     0.13403   0.39716   0.89164   0.00000  Uiso   1.00
A42    O     0.63403   0.39716   0.39164   0.00000  Uiso   1.00
A43    O     0.63381   0.40403   0.89186   0.00000  Uiso   1.00
A44    O     0.13381   0.40403   0.39186   0.00000  Uiso   1.00
A45    O     0.38054   0.43136   0.63891   0.00000  Uiso   1.00
A46    O     0.88054   0.43136   0.13891   0.00000  Uiso   1.00
A47    O     0.37229   0.43638   0.13079   0.00000  Uiso   1.00
A48    O     0.87229   0.43638   0.63079   0.00000  Uiso   1.00
A49    O     0.63102   0.46271   0.88974   0.00000  Uiso   1.00
A50    O     0.13102   0.46271   0.38974   0.00000  Uiso   1.00
A51    O     0.62310   0.46783   0.38192   0.00000  Uiso   1.00
A52    O     0.12310   0.46783   0.88192   0.00000  Uiso   1.00
A53    O     0.37047   0.49507   0.12976   0.00000  Uiso   1.00
A54    O     0.87046   0.49507   0.62976   0.00000  Uiso   1.00
A55    O     0.87340   0.50297   0.13309   0.00000  Uiso   1.00
A56    O     0.37339   0.50297   0.63308   0.00000  Uiso   1.00
A57    O     0.62835   0.53019   0.88881   0.00000  Uiso   1.00
A58    O     0.12836   0.53019   0.38882   0.00000  Uiso   1.00
A59    O     0.12748   0.53743   0.88794   0.00000  Uiso   1.00
A60    O     0.62748   0.53743   0.38795   0.00000  Uiso   1.00
A61    O     0.37826   0.56391   0.63905   0.00000  Uiso   1.00
A62    O     0.87866   0.56391   0.13946   0.00000  Uiso   1.00
A63    O     0.37788   0.57017   0.13942   0.00000  Uiso   1.00
A64    O     0.87852   0.57017   0.63877   0.00000  Uiso   1.00
A65    O     0.12809   0.59615   0.88892   0.00000  Uiso   1.00
A66    O     0.62810   0.59615   0.38891   0.00000  Uiso   1.00
A67    E     0.49977   0.05060   0.50759   0.00000  Uiso   1.00
A68    E     0.49977   0.08060   0.50759   0.00000  Uiso   1.00
A69    E     0.49977   0.11060   0.50759   0.00000  Uiso   1.00
A70    E     0.49977   0.14060   0.50759   0.00000  Uiso   1.00
A71    E     0.49977   0.17060   0.50759   0.00000  Uiso   1.00
A72    E     0.49977   0.62060   0.50759   0.00000  Uiso   1.00
A73    E     0.49977   0.65060   0.50759   0.00000  Uiso   1.00
A74    E     0.49977   0.68060   0.50759   0.00000  Uiso   1.00
A75    E     0.49977   0.71060   0.50759   0.00000  Uiso   1.00
A76    E     0.49977   0.74060   0.50759   0.00000  Uiso   1.00
